PDE 2000 01 01 00 00 00.0 1000.0 1000.0 500.0 4.5 0.0 0.0 sample_event
event name:       sample_event
time shift:       0.0
half duration:    0.5
latitude:         1000.0
longitude:        1000.0
depth:            500.0
Mrr:              1.0
Mtt:              1.0
Mpp:              1.0
Mrt:              0.0
Mrp:              0.0
Mtp:              0.0
